Version 4
SHEET 1 1552 680
WIRE -80 16 -176 16
WIRE 0 16 -80 16
WIRE 368 16 0 16
WIRE 512 16 416 16
WIRE 640 16 576 16
WIRE 752 16 640 16
WIRE -176 32 -176 16
WIRE -80 32 -80 16
WIRE 368 32 368 16
WIRE 416 32 416 16
WIRE 640 32 640 16
WIRE 752 32 752 16
WIRE -176 128 -176 112
WIRE -80 128 -80 96
WIRE 416 128 416 112
WIRE 640 128 640 96
WIRE 752 128 752 112
WIRE 0 144 0 16
WIRE 64 144 0 144
WIRE 368 144 368 112
WIRE 368 144 288 144
WIRE 0 160 0 144
WIRE 368 176 368 144
WIRE 0 272 0 240
WIRE 64 272 0 272
WIRE 368 272 368 256
WIRE 368 272 288 272
WIRE 176 336 176 320
FLAG 176 336 0
FLAG -176 128 0
FLAG -176 16 IN
FLAG 416 128 0
FLAG 640 128 0
FLAG 752 128 0
FLAG 752 16 OUT
FLAG -80 128 0
SYMBOL voltage -176 16 R0
WINDOW 123 0 0 Left 2
WINDOW 39 0 0 Left 2
SYMATTR InstName V1
SYMATTR Value 12
SYMBOL ind2 352 16 R0
WINDOW 0 0 39 Right 2
WINDOW 3 0 77 Right 2
SYMATTR InstName L1
SYMATTR Value 40µ
SYMATTR Type ind
SYMATTR SpiceLine Rser=500m Cpar=1p
SYMBOL ind2 432 128 R180
WINDOW 0 -4 72 Right 2
WINDOW 3 -1 33 Right 2
SYMATTR InstName L2
SYMATTR Value 2.5µ
SYMATTR Type ind
SYMATTR SpiceLine Rser=20m Cpar=0
SYMBOL res 352 160 R0
SYMATTR InstName R1
SYMATTR Value 204k
SYMBOL schottky 512 32 R270
WINDOW 0 32 32 VTop 2
WINDOW 3 0 32 VBottom 2
SYMATTR InstName D1
SYMATTR Value SK64L-TP
SYMATTR Description Diode
SYMATTR Type diode
SYMBOL res 736 16 R0
SYMATTR InstName Rload
SYMATTR Value 50
SYMBOL res -16 144 R0
SYMATTR InstName J1
SYMATTR Value 0
SYMBOL PowerProducts\\LT3001 176 208 R0
SYMATTR InstName U1
SYMBOL cap 624 32 R0
WINDOW 3 38 32 Left 2
WINDOW 123 26 55 Left 2
SYMATTR Value 30µ
SYMATTR Value2 x2
SYMATTR InstName C1
SYMATTR SpiceLine Rser=0.003
SYMBOL cap -96 32 R0
SYMATTR InstName C2
TEXT 392 8 Bottom 2 !K1 L1 L2 .999
TEXT 512 312 Left 2 !.tran 10m startup
TEXT 464 184 Left 2 ;750313976\nwurth\nNps = 4:1\nLpri = 40µH
TEXT 872 32 Left 2 !.model SK64L-TP d(bv = 45 ibv = 5.5u cjo =400p vfwd = 0.2)
