Version 4
SHEET 1 1560 804
WIRE 592 -384 48 -384
WIRE 400 -256 176 -256
WIRE 176 -128 176 -176
WIRE 176 -112 176 -128
WIRE 48 -80 48 -384
WIRE 48 -80 -144 -80
WIRE 592 -80 592 -384
WIRE 704 -80 592 -80
WIRE 928 -80 768 -80
WIRE -208 -32 -432 -32
WIRE -144 -32 -144 -80
WIRE 48 -16 48 -80
WIRE 176 -16 176 -64
WIRE -144 64 -144 -32
WIRE -48 64 -144 64
WIRE 672 64 272 64
WIRE 736 64 672 64
WIRE 928 64 928 -80
WIRE 928 64 816 64
WIRE 1056 64 928 64
WIRE -48 160 -112 160
WIRE -176 208 -176 160
WIRE -176 208 -336 208
WIRE 672 224 672 64
WIRE -176 256 -176 208
WIRE -48 256 -176 256
WIRE 400 256 400 -256
WIRE 400 256 272 256
WIRE 512 256 512 240
WIRE 512 256 400 256
WIRE -176 352 -208 352
WIRE -48 352 -96 352
WIRE 416 352 272 352
WIRE 416 432 416 352
WIRE 48 448 48 432
WIRE 176 464 176 432
WIRE 320 464 176 464
WIRE -432 560 -432 -32
WIRE -336 560 -336 208
WIRE -336 560 -432 560
WIRE -272 560 -272 352
WIRE -272 560 -336 560
WIRE 48 560 48 512
WIRE 48 560 -272 560
WIRE 320 560 320 464
WIRE 320 560 48 560
WIRE 416 560 416 512
WIRE 416 560 320 560
WIRE 672 560 672 304
WIRE 672 560 416 560
WIRE 912 560 672 560
WIRE 1120 560 1120 64
WIRE 1120 560 992 560
WIRE 1296 560 1120 560
WIRE 672 720 672 624
WIRE 912 720 672 720
WIRE 1120 720 1120 624
WIRE 1120 720 912 720
WIRE 1296 720 1296 624
WIRE 1296 720 1120 720
WIRE 912 784 912 720
FLAG 512 160 0
FLAG 912 784 0
FLAG 1296 560 Vout
IOPIN 1296 560 Out
SYMBOL LT8315 112 208 R0
SYMATTR InstName U1
SYMBOL voltage 512 256 R180
WINDOW 0 24 96 Left 2
WINDOW 3 24 16 Left 2
WINDOW 123 0 0 Left 0
WINDOW 39 0 0 Left 0
SYMATTR InstName V1
SYMATTR Value 380
SYMBOL cap 160 -128 R0
SYMATTR InstName C1
SYMATTR Value 10p
SYMBOL res 160 -272 R0
SYMATTR InstName R1
SYMATTR Value 4.99kK
SYMBOL cap -144 -48 R90
WINDOW 0 0 32 VBottom 2
WINDOW 3 32 32 VTop 2
SYMATTR InstName C2
SYMATTR Value 10µ
SYMBOL cap -112 144 R90
WINDOW 0 0 32 VBottom 2
WINDOW 3 32 32 VTop 2
SYMATTR InstName C3
SYMATTR Value 10µ
SYMBOL res -80 336 R90
WINDOW 0 0 56 VBottom 2
WINDOW 3 32 56 VTop 2
SYMATTR InstName R2
SYMATTR Value 22.1K
SYMBOL cap -208 336 R90
WINDOW 0 0 32 VBottom 2
WINDOW 3 32 32 VTop 2
SYMATTR InstName C4
SYMATTR Value 330n
SYMBOL cap 32 448 R0
SYMATTR InstName C5
SYMATTR Value 1µ
SYMATTR SpiceLine V=25 Irms=0 Rser=0.025 Lser=800p
SYMBOL res 400 416 R0
SYMATTR InstName R3
SYMATTR Value 330m
SYMBOL schottky 768 -96 R90
WINDOW 0 0 32 VBottom 2
WINDOW 3 32 32 VTop 2
SYMATTR InstName D1
SYMATTR Value CMDSH2-3
SYMATTR Description Diode
SYMATTR Type diode
SYMBOL res 656 208 R0
SYMATTR InstName R4
SYMATTR Value 1.24k
SYMBOL res 832 48 R90
WINDOW 0 0 56 VBottom 2
WINDOW 3 32 56 VTop 2
SYMATTR InstName R5
SYMATTR Value 11k
SYMBOL diode 1120 48 R90
WINDOW 0 0 32 VBottom 2
WINDOW 3 32 32 VTop 2
SYMATTR InstName D2
SYMATTR Value RR268MM-600
SYMBOL diode 688 624 R180
WINDOW 0 24 64 Left 2
WINDOW 3 24 0 Left 2
SYMATTR InstName D3
SYMATTR Value RFN10BM6S
SYMBOL ind 896 576 R270
WINDOW 0 32 56 VTop 2
WINDOW 3 5 56 VBottom 2
SYMATTR InstName L1
SYMATTR Value 1m
SYMATTR SpiceLine Ipk=0.1 Rser=24.8 Rpar=94200 Cpar=0 mfg="Coilcraft" pn="LPZ3314-105"
SYMBOL cap 1104 560 R0
SYMATTR InstName C6
SYMATTR Value 44µ
SYMBOL zener 1312 624 R180
WINDOW 0 24 64 Left 2
WINDOW 3 24 0 Left 2
SYMATTR InstName D4
SYMATTR Value UDZV13B
SYMATTR Description Diode
SYMATTR Type diode
TEXT 1336 376 Left 2 !.tran 350m startup
