Version 4
SHEET 1 1632 964
WIRE 288 -416 -256 -416
WIRE 16 -288 -128 -288
WIRE -128 -160 -128 -208
WIRE -128 -144 -128 -160
WIRE -256 -112 -256 -416
WIRE -256 -112 -448 -112
WIRE 288 -112 288 -416
WIRE 400 -112 288 -112
WIRE 624 -112 464 -112
WIRE -512 -64 -736 -64
WIRE -448 -64 -448 -112
WIRE -256 -48 -256 -112
WIRE -128 -48 -128 -96
WIRE -448 32 -448 -64
WIRE -352 32 -448 32
WIRE 368 32 -32 32
WIRE 432 32 368 32
WIRE 624 32 624 -112
WIRE 624 32 512 32
WIRE 752 32 624 32
WIRE 208 80 208 64
WIRE 208 80 80 80
WIRE 288 80 208 80
WIRE -352 128 -416 128
WIRE 80 128 80 80
WIRE 208 128 208 80
WIRE 288 128 288 80
WIRE -480 176 -480 128
WIRE -480 176 -640 176
WIRE 368 192 368 32
WIRE -480 224 -480 176
WIRE -352 224 -480 224
WIRE 16 224 16 -288
WIRE 16 224 -32 224
WIRE 80 224 80 192
WIRE 80 224 16 224
WIRE 208 224 208 208
WIRE 208 224 80 224
WIRE 288 224 288 192
WIRE 288 224 208 224
WIRE -576 320 -592 320
WIRE -480 320 -512 320
WIRE -352 320 -400 320
WIRE 112 320 -32 320
WIRE 112 400 112 320
WIRE -256 416 -256 400
WIRE -128 432 -128 400
WIRE 16 432 -128 432
WIRE -736 528 -736 -64
WIRE -640 528 -640 176
WIRE -640 528 -736 528
WIRE -592 528 -592 320
WIRE -592 528 -640 528
WIRE -256 528 -256 496
WIRE -256 528 -592 528
WIRE 16 528 16 432
WIRE 16 528 -256 528
WIRE 112 528 112 480
WIRE 112 528 16 528
WIRE 368 528 368 272
WIRE 368 528 112 528
WIRE 608 528 368 528
WIRE 816 528 816 32
WIRE 816 528 688 528
WIRE 912 528 816 528
WIRE 1056 528 912 528
WIRE 1168 528 1056 528
WIRE 1184 528 1168 528
WIRE 368 576 368 528
WIRE 816 576 816 528
WIRE 912 576 912 528
WIRE 1056 576 1056 528
WIRE 1184 592 1184 528
WIRE 368 688 368 640
WIRE 608 688 368 688
WIRE 816 688 816 640
WIRE 816 688 608 688
WIRE 912 688 912 640
WIRE 912 688 816 688
WIRE 1056 688 1056 640
WIRE 1056 688 912 688
WIRE 1184 688 1184 672
WIRE 1184 688 1056 688
WIRE 608 752 608 688
FLAG 608 752 0
FLAG 1168 528 Vout
IOPIN 1168 528 Out
FLAG 208 64 0
SYMBOL LT8315 -192 176 R0
SYMATTR InstName U1
SYMBOL voltage 208 224 R180
WINDOW 0 24 96 Left 2
WINDOW 3 24 16 Left 2
WINDOW 123 0 0 Left 0
WINDOW 39 0 0 Left 0
SYMATTR InstName V1
SYMATTR Value 380
SYMBOL cap -144 -160 R0
SYMATTR InstName C1
SYMATTR Value 10p
SYMBOL res -144 -304 R0
SYMATTR InstName R1
SYMATTR Value 4.99kK
SYMBOL cap -448 -80 R90
WINDOW 0 0 32 VBottom 2
WINDOW 3 32 32 VTop 2
SYMATTR InstName C2
SYMATTR Value 10µ
SYMATTR SpiceLine V=25 Irms=0 Rser=0 Lser=0
SYMBOL cap -416 112 R90
WINDOW 0 0 32 VBottom 2
WINDOW 3 32 32 VTop 2
SYMATTR InstName C3
SYMATTR Value 10µ
SYMATTR SpiceLine V=25 Irms=0 Rser=0 Lser=0 mfg="Murata" pn="GCM32ER71E106MA57" type="X7R"
SYMBOL res -384 304 R90
WINDOW 0 0 56 VBottom 2
WINDOW 3 32 56 VTop 2
SYMATTR InstName R2
SYMATTR Value 22.1K
SYMBOL cap -512 304 R90
WINDOW 0 0 32 VBottom 2
WINDOW 3 32 32 VTop 2
SYMATTR InstName C4
SYMATTR Value 330n
SYMBOL res 96 384 R0
SYMATTR InstName R3
SYMATTR Value 196m
SYMBOL schottky 464 -128 R90
WINDOW 0 0 32 VBottom 2
WINDOW 3 32 32 VTop 2
SYMATTR InstName D1
SYMATTR Value CMDSH2-3
SYMATTR Description Diode
SYMATTR Type diode
SYMBOL res 352 176 R0
SYMATTR InstName R4
SYMATTR Value 5K
SYMBOL res 528 16 R90
WINDOW 0 0 56 VBottom 2
WINDOW 3 32 56 VTop 2
SYMATTR InstName R5
SYMATTR Value 15.5K
SYMBOL diode 816 16 R90
WINDOW 0 0 32 VBottom 2
WINDOW 3 32 32 VTop 2
SYMATTR InstName D2
SYMATTR Value RR268MM-600
SYMBOL ind 592 544 R270
WINDOW 0 32 56 VTop 2
WINDOW 3 5 56 VBottom 2
SYMATTR InstName L1
SYMATTR Value 1.1m
SYMATTR SpiceLine Ipk=0.57 Rser=1.64088 Rpar=103620 Cpar=0 mfg="Coilcraft" pn="SPT44L-115"
SYMBOL zener 1072 640 R180
WINDOW 0 24 64 Left 2
WINDOW 3 24 0 Left 2
SYMATTR InstName D4
SYMATTR Value MYD
SYMATTR Description Diode
SYMATTR Type diode
SYMBOL res -272 400 R0
SYMATTR InstName R6
SYMATTR Value 49K
SYMBOL res 1168 576 R0
SYMATTR InstName R7
SYMATTR Value 50
SYMBOL polcap 96 192 R180
WINDOW 0 24 57 Left 2
WINDOW 3 24 8 Left 2
SYMATTR InstName C7
SYMATTR Value 3.3µ
SYMATTR Description Capacitor
SYMATTR Type cap
SYMATTR SpiceLine V=450 Irms=40m Rser=0.98034 Lser=4.01406n mfg="Würth Elektronik" pn="865061457001 WCAP-ASLL 10x10,5" type="Al electrolytic"
SYMBOL cap 272 128 R0
SYMATTR InstName C8
SYMATTR Value 0.47µ
SYMATTR SpiceLine V=630 Irms=0 Rser=0.0333146 Lser=13.2945n mfg="Würth Elektronik" pn="890303326009CS WCAP-FTBP 22.5 x 26 x 18 x 9" type="Box"
SYMBOL cap 896 576 R0
SYMATTR InstName C9
SYMATTR Value 22µ
SYMATTR SpiceLine V=10 Irms=0 Rser=0 Lser=0
SYMBOL cap 800 576 R0
SYMATTR InstName C5
SYMATTR Value 22µ
SYMATTR SpiceLine V=10 Irms=0 Rser=0 Lser=0
SYMBOL cap -400 592 R0
SYMATTR InstName C6
SYMATTR Value 0.1µ
SYMATTR SpiceLine V=25 Irms=728m Rser=0.14361 Lser=0 mfg="KEMET" pn="C0603C104K3RAC" type="X7R"
SYMBOL diode 384 640 R180
WINDOW 0 24 64 Left 2
WINDOW 3 24 0 Left 2
SYMATTR InstName D3
SYMATTR Value RR268MM-600
TEXT 1032 344 Left 2 !.tran 350m startup
TEXT 1208 440 Left 2 !.model MYD ako: 1N750 Bv=5
