Version 4
SHEET 1 1256 772
WIRE 288 -416 -256 -416
WIRE 96 -288 -128 -288
WIRE -128 -160 -128 -208
WIRE -128 -144 -128 -160
WIRE -256 -112 -256 -416
WIRE -256 -112 -448 -112
WIRE 288 -112 288 -416
WIRE 400 -112 288 -112
WIRE 624 -112 464 -112
WIRE -512 -64 -736 -64
WIRE -448 -64 -448 -112
WIRE -256 -48 -256 -112
WIRE -128 -48 -128 -96
WIRE -448 32 -448 -64
WIRE -352 32 -448 32
WIRE 368 32 -32 32
WIRE 432 32 368 32
WIRE 624 32 624 -112
WIRE 624 32 512 32
WIRE 752 32 624 32
WIRE -352 128 -416 128
WIRE -480 176 -480 128
WIRE -480 176 -640 176
WIRE 368 192 368 32
WIRE -480 224 -480 176
WIRE -352 224 -480 224
WIRE 96 224 96 -288
WIRE 96 224 -32 224
WIRE 208 224 208 208
WIRE 208 224 96 224
WIRE -480 320 -512 320
WIRE -352 320 -400 320
WIRE 112 320 -32 320
WIRE 112 400 112 320
WIRE -256 416 -256 400
WIRE -128 432 -128 400
WIRE 16 432 -128 432
WIRE -736 528 -736 -64
WIRE -640 528 -640 176
WIRE -640 528 -736 528
WIRE -576 528 -576 320
WIRE -576 528 -640 528
WIRE -256 528 -256 496
WIRE -256 528 -576 528
WIRE 16 528 16 432
WIRE 16 528 -256 528
WIRE 112 528 112 480
WIRE 112 528 16 528
WIRE 368 528 368 272
WIRE 368 528 112 528
WIRE 608 528 368 528
WIRE 816 528 816 32
WIRE 816 528 688 528
WIRE 992 528 816 528
WIRE 368 688 368 592
WIRE 608 688 368 688
WIRE 816 688 816 592
WIRE 816 688 608 688
WIRE 992 688 992 592
WIRE 992 688 816 688
WIRE 608 752 608 688
FLAG 208 128 0
FLAG 608 752 0
FLAG 992 528 Vout
IOPIN 992 528 Out
SYMBOL LT8315 -192 176 R0
SYMATTR InstName U1
SYMBOL voltage 208 224 R180
WINDOW 0 24 96 Left 2
WINDOW 3 24 16 Left 2
WINDOW 123 0 0 Left 0
WINDOW 39 0 0 Left 0
SYMATTR InstName V1
SYMATTR Value 300
SYMBOL cap -144 -160 R0
SYMATTR InstName C1
SYMATTR Value 10p
SYMBOL res -144 -304 R0
SYMATTR InstName R1
SYMATTR Value 4.99kK
SYMBOL cap -448 -80 R90
WINDOW 0 0 32 VBottom 2
WINDOW 3 32 32 VTop 2
SYMATTR InstName C2
SYMATTR Value 10µ
SYMBOL cap -416 112 R90
WINDOW 0 0 32 VBottom 2
WINDOW 3 32 32 VTop 2
SYMATTR InstName C3
SYMATTR Value 10µ
SYMBOL res -384 304 R90
WINDOW 0 0 56 VBottom 2
WINDOW 3 32 56 VTop 2
SYMATTR InstName R2
SYMATTR Value 22.1K
SYMBOL cap -512 304 R90
WINDOW 0 0 32 VBottom 2
WINDOW 3 32 32 VTop 2
SYMATTR InstName C4
SYMATTR Value 330n
SYMBOL cap -592 624 R0
SYMATTR InstName C5
SYMATTR Value 0.1
SYMATTR SpiceLine V=25 Irms=0 Rser=0.025 Lser=800p
SYMBOL res 96 384 R0
SYMATTR InstName R3
SYMATTR Value 196m
SYMBOL schottky 464 -128 R90
WINDOW 0 0 32 VBottom 2
WINDOW 3 32 32 VTop 2
SYMATTR InstName D1
SYMATTR Value CMDSH2-3
SYMATTR Description Diode
SYMATTR Type diode
SYMBOL res 352 176 R0
SYMATTR InstName R4
SYMATTR Value 5K
SYMBOL res 528 16 R90
WINDOW 0 0 56 VBottom 2
WINDOW 3 32 56 VTop 2
SYMATTR InstName R5
SYMATTR Value 15.4K
SYMBOL diode 816 16 R90
WINDOW 0 0 32 VBottom 2
WINDOW 3 32 32 VTop 2
SYMATTR InstName D2
SYMATTR Value RR268MM-600
SYMBOL diode 384 592 R180
WINDOW 0 24 64 Left 2
WINDOW 3 24 0 Left 2
SYMATTR InstName D3
SYMATTR Value RFN10BM6S
SYMBOL ind 592 544 R270
WINDOW 0 32 56 VTop 2
WINDOW 3 5 56 VBottom 2
SYMATTR InstName L1
SYMATTR Value 1.1m
SYMATTR SpiceLine Ipk=0.1 Rser=24.8 Rpar=94200 Cpar=0
SYMBOL cap 800 528 R0
SYMATTR InstName C6
SYMATTR Value 44µ
SYMBOL zener 1008 592 R180
WINDOW 0 24 64 Left 2
WINDOW 3 24 0 Left 2
SYMATTR InstName D4
SYMATTR Value UDZV6_2B
SYMATTR Description Diode
SYMATTR Type diode
SYMBOL res -272 400 R0
SYMATTR InstName R6
SYMATTR Value 49K
TEXT 1032 344 Left 2 !.tran 350m startup
