Version 4
SHEET 1 1620 1192
WIRE 576 -144 -160 -144
WIRE -160 -128 -160 -144
WIRE 48 -80 -48 -80
WIRE 208 -80 112 -80
WIRE 464 -80 208 -80
WIRE 832 -80 464 -80
WIRE 208 -64 208 -80
WIRE 832 -64 832 -80
WIRE -160 -32 -160 -48
WIRE -48 -32 -48 -80
WIRE 208 16 208 0
WIRE 832 32 832 16
WIRE -128 80 -144 80
WIRE -48 80 -48 48
WIRE -48 80 -64 80
WIRE 80 80 -48 80
WIRE 464 96 464 -80
WIRE 80 112 80 80
WIRE 208 112 208 96
WIRE 576 128 576 -144
WIRE 832 128 576 128
WIRE 976 128 880 128
WIRE 1104 128 1040 128
WIRE 1216 128 1104 128
WIRE 832 144 832 128
WIRE 880 144 880 128
WIRE 1104 144 1104 128
WIRE 1216 144 1216 128
WIRE 576 160 576 128
WIRE -48 192 -48 80
WIRE -16 192 -48 192
WIRE 416 192 304 192
WIRE 464 192 464 176
WIRE 464 192 416 192
WIRE 464 208 464 192
WIRE 880 240 880 224
WIRE 1104 240 1104 208
WIRE 1216 240 1216 224
WIRE 576 272 576 224
WIRE -96 288 -112 288
WIRE -16 288 -32 288
WIRE 320 288 304 288
WIRE 416 288 416 192
WIRE 416 288 400 288
WIRE 464 304 464 288
WIRE -16 384 -32 384
WIRE 576 384 576 336
WIRE 576 384 304 384
WIRE 832 384 832 224
WIRE 832 384 576 384
WIRE -208 480 -256 480
WIRE -96 480 -128 480
WIRE -16 480 -96 480
WIRE 320 480 304 480
WIRE 416 480 400 480
WIRE -256 496 -256 480
WIRE -96 496 -96 480
WIRE -256 576 -256 560
WIRE -96 576 -96 560
WIRE 80 576 80 560
WIRE 208 576 208 560
WIRE 80 672 80 656
FLAG -160 -32 0
FLAG -96 576 0
FLAG 1104 240 0
FLAG 880 240 0
FLAG 1216 240 0
FLAG -160 -144 IN
FLAG 1216 128 OUT
FLAG 208 576 0
FLAG 80 672 0
FLAG 416 480 0
FLAG 464 304 0
FLAG 832 32 0
FLAG -32 384 0
FLAG -112 288 0
FLAG -144 80 0
FLAG -256 576 0
SYMBOL voltage -160 -144 R0
WINDOW 123 0 0 Left 2
WINDOW 39 0 0 Left 2
SYMATTR InstName V1
SYMATTR Value 250
SYMBOL cap -112 560 M180
WINDOW 0 24 56 Left 2
WINDOW 3 24 8 Left 2
WINDOW 39 24 -13 Left 2
SYMATTR InstName C1
SYMATTR Value 470p
SYMBOL ind2 816 128 R0
WINDOW 0 -3 37 Right 2
WINDOW 3 -4 74 Right 2
SYMATTR InstName L1
SYMATTR Value 4m
SYMATTR SpiceLine Rser=6
SYMATTR Type ind
SYMBOL ind2 896 240 R180
WINDOW 0 -2 77 Right 2
WINDOW 3 -1 41 Right 2
SYMATTR InstName L2
SYMATTR Value 160µ
SYMATTR SpiceLine Rser=0.5 Cpar=0.5p
SYMATTR Type ind
SYMBOL cap 1088 144 R0
SYMATTR SpiceLine Rser=15m
SYMATTR InstName C2
SYMATTR Value 220µ
SYMBOL schottky 976 144 R270
WINDOW 0 32 32 VTop 2
WINDOW 3 0 32 VBottom 2
SYMATTR InstName D1
SYMATTR Value RB058L150
SYMATTR Description Diode
SYMATTR Type diode
SYMBOL res 304 496 R270
WINDOW 0 32 56 VTop 2
WINDOW 3 0 56 VBottom 2
SYMATTR InstName R1
SYMATTR Value 330m
SYMBOL LT8315 144 336 R0
SYMATTR InstName U1
SYMBOL res 64 560 R0
SYMATTR InstName R2
SYMATTR Value 121K
SYMBOL cap 192 -64 R0
SYMATTR InstName C3
SYMATTR Value 47p
SYMBOL res 192 0 R0
SYMATTR InstName R3
SYMATTR Value 20K
SYMBOL schottky 112 -96 R90
WINDOW 0 0 32 VBottom 2
WINDOW 3 32 32 VTop 2
SYMATTR InstName D2
SYMATTR Value RB558VYM150
SYMATTR Description Diode
SYMATTR Type diode
SYMBOL res -64 -48 R0
SYMATTR InstName R4
SYMATTR Value 600
SYMBOL res 416 272 R90
WINDOW 0 0 56 VBottom 2
WINDOW 3 32 56 VTop 2
SYMATTR InstName R5
SYMATTR Value 61.9K
SYMBOL res 448 80 R0
SYMATTR InstName R6
SYMATTR Value 95.3K
SYMBOL res 448 192 R0
SYMATTR InstName R7
SYMATTR Value 5.11K
SYMBOL diode 560 336 M180
WINDOW 0 24 64 Left 2
WINDOW 3 24 0 Left 2
SYMATTR InstName D3
SYMATTR Value RFN1L6S
SYMBOL ind2 816 32 M180
WINDOW 0 40 88 Left 2
WINDOW 3 42 38 Left 2
SYMATTR InstName L3
SYMATTR Value 640µ
SYMATTR SpiceLine Rser=2.4
SYMATTR Type ind
SYMBOL cap -32 272 R90
WINDOW 0 0 32 VBottom 2
WINDOW 3 32 32 VTop 2
SYMATTR InstName C4
SYMATTR Value 10µ
SYMBOL cap -64 64 R90
WINDOW 0 0 32 VBottom 2
WINDOW 3 32 32 VTop 2
SYMATTR InstName C5
SYMATTR Value 10µ
SYMBOL schottky 560 160 R0
SYMATTR InstName D4
SYMATTR Value RB168VYM150
SYMATTR Description Diode
SYMATTR Type diode
SYMBOL res -112 464 R90
WINDOW 0 0 56 VBottom 2
WINDOW 3 32 56 VTop 2
SYMATTR InstName R8
SYMATTR Value 100K
SYMBOL cap -272 496 R0
SYMATTR InstName C6
SYMATTR Value 22n
SYMBOL res 1200 128 R0
SYMATTR InstName Rload
SYMATTR Value 300
TEXT 720 104 Bottom 2 !K1 L1 L2 L3 1
TEXT 624 448 Left 2 !.tran 350m startup
TEXT 720 72 Bottom 2 ;5:1:2
TEXT 496 -160 Bottom 2 ;LT8315 - 560Vin µPower No-Opto Isolated Flyback Converter with 630V/0.3A Switch\nµPower No-Opto Isolated Flyback Converter\nInput: 20V to 450V       Output: 12V @ 220mA
TEXT -216 680 Left 2 ;Note:\n  If the simulation model is not found please update with the "Sync Release" command from the "Tools" menu.\n  It remains the customer's responsibility to verify proper and reliable operation in the actual application.\n  Component substitution and printed circuit board layout may significantly affect circuit performance or reliability.\n  Contact your local sales representative for assistance. This circuit is distributed to customers only for use with LTC parts.\n  Copyright © 2017 Linear Technology Inc. All rights reserved.
